
     RDKit          3D

 40 42  0  0  0  0  0  0  0  0999 V2000
    4.1344    1.6947   -2.5238 C   0  0  0  0  0  0  0  0  0  0  0  0
    4.1569    0.5710   -1.5408 C   0  0  0  0  0  0  0  0  0  0  0  0
    3.1410   -0.2792   -1.3401 C   0  0  0  0  0  0  0  0  0  0  0  0
    3.2180   -1.2973   -0.4169 N   0  0  0  0  0  0  0  0  0  0  0  0
    2.0426   -2.1921   -0.3285 C   0  0  1  0  0  0  0  0  0  0  0  0
    1.4081   -2.2719    1.0711 C   0  0  0  0  0  0  0  0  0  0  0  0
    0.0781   -2.1349    0.3247 C   0  0  1  0  0  0  0  0  0  0  0  0
   -0.8688   -1.0550    0.8382 C   0  0  0  0  0  0  0  0  0  0  0  0
   -1.9977   -0.9955   -0.0356 O   0  0  0  0  0  0  0  0  0  0  0  0
   -2.9607   -0.0681    0.2482 C   0  0  0  0  0  0  0  0  0  0  0  0
   -4.0230   -0.0369   -0.6579 C   0  0  0  0  0  0  0  0  0  0  0  0
   -5.0798    0.8614   -0.4898 C   0  0  0  0  0  0  0  0  0  0  0  0
   -5.0865    1.7525    0.5914 C   0  0  0  0  0  0  0  0  0  0  0  0
   -6.2343    2.7107    0.7938 C   0  0  0  0  0  0  0  0  0  0  0  0
   -7.2082    2.1906    1.5905 F   0  0  0  0  0  0  0  0  0  0  0  0
   -5.8548    3.8796    1.3826 F   0  0  0  0  0  0  0  0  0  0  0  0
   -6.8505    3.0647   -0.3686 F   0  0  0  0  0  0  0  0  0  0  0  0
   -4.0215    1.7108    1.5040 C   0  0  0  0  0  0  0  0  0  0  0  0
   -2.9643    0.8090    1.3322 C   0  0  0  0  0  0  0  0  0  0  0  0
    0.7785   -1.7200   -0.8829 O   0  0  0  0  0  0  0  0  0  0  0  0
    4.3547   -1.5416    0.3301 C   0  0  0  0  0  0  0  0  0  0  0  0
    4.4616   -2.4716    1.1264 O   0  0  0  0  0  0  0  0  0  0  0  0
    5.3875   -0.6647    0.1338 N   0  0  0  0  0  0  0  0  0  0  0  0
    5.3923    0.3851   -0.7400 C   0  0  0  0  0  0  0  0  0  0  0  0
    6.3610    1.1269   -0.8590 O   0  0  0  0  0  0  0  0  0  0  0  0
    3.1832    1.7422   -3.0646 H   0  0  0  0  0  0  0  0  0  0  0  0
    4.9317    1.5732   -3.2643 H   0  0  0  0  0  0  0  0  0  0  0  0
    4.2749    2.6534   -2.0142 H   0  0  0  0  0  0  0  0  0  0  0  0
    2.2204   -0.1845   -1.9104 H   0  0  0  0  0  0  0  0  0  0  0  0
    2.2806   -3.1755   -0.7566 H   0  0  0  0  0  0  0  0  0  0  0  0
    1.6475   -1.4424    1.7439 H   0  0  0  0  0  0  0  0  0  0  0  0
    1.5523   -3.2209    1.5940 H   0  0  0  0  0  0  0  0  0  0  0  0
   -0.4283   -3.0949    0.1602 H   0  0  0  0  0  0  0  0  0  0  0  0
   -0.3558   -0.0856    0.8611 H   0  0  0  0  0  0  0  0  0  0  0  0
   -1.1999   -1.3227    1.8487 H   0  0  0  0  0  0  0  0  0  0  0  0
   -4.0268   -0.7205   -1.5043 H   0  0  0  0  0  0  0  0  0  0  0  0
   -5.8966    0.8623   -1.2099 H   0  0  0  0  0  0  0  0  0  0  0  0
   -4.0091    2.3866    2.3585 H   0  0  0  0  0  0  0  0  0  0  0  0
   -2.1636    0.8185    2.0643 H   0  0  0  0  0  0  0  0  0  0  0  0
    6.2251   -0.8170    0.6731 H   0  0  0  0  0  0  0  0  0  0  0  0
  1  2  1  0
  2  3  2  0
  3  4  1  0
  4  5  1  0
  5  6  1  0
  6  7  1  0
  7  8  1  0
  8  9  1  0
  9 10  1  0
 10 11  2  0
 11 12  1  0
 12 13  2  0
 13 14  1  0
 14 15  1  0
 14 16  1  0
 14 17  1  0
 13 18  1  0
 18 19  2  0
  7 20  1  0
  4 21  1  0
 21 22  2  0
 21 23  1  0
 23 24  1  0
 24 25  2  0
 24  2  1  0
 20  5  1  0
 19 10  1  0
  1 26  1  0
  1 27  1  0
  1 28  1  0
  3 29  1  0
  5 30  1  6
  6 31  1  0
  6 32  1  0
  7 33  1  6
  8 34  1  0
  8 35  1  0
 11 36  1  0
 12 37  1  0
 18 38  1  0
 19 39  1  0
 23 40  1  0
M  END
$$$$
